#======================================================================

# CRYSTAL DATA

#----------------------------------------------------------------------

data_VESTA_phase_1


_chemical_name_common                  'A                                     '
_cell_length_a                         19.12364
_cell_length_b                         6.92284
_cell_length_c                         10.62964
_cell_angle_alpha                      77.30779
_cell_angle_beta                       72.07261
_cell_angle_gamma                      85.36604
_space_group_name_H-M_alt              'P 1'
_space_group_IT_number                 1

loop_
_space_group_symop_operation_xyz
   'x, y, z'

loop_
   _atom_site_label
   _atom_site_occupancy
   _atom_site_fract_x
   _atom_site_fract_y
   _atom_site_fract_z
   _atom_site_adp_type
   _atom_site_B_iso_or_equiv
   _atom_site_type_symbol
   O1         1.0     0.308472      0.118292      0.609492     Biso  1.000000 O
   O2         1.0     0.335062      0.232798      0.344257     Biso  1.000000 O
   O3         1.0     0.808015      0.615085      0.614990     Biso  1.000000 O
   O4         1.0     0.830219      0.721732      0.347577     Biso  1.000000 O
   O5         1.0     0.721908      0.245431      0.342534     Biso  1.000000 O
   O6         1.0     0.655346      0.146398      0.620659     Biso  1.000000 O
   O7         1.0     0.219889      0.754553      0.338744     Biso  1.000000 O
   O8         1.0     0.157055      0.651983      0.613647     Biso  1.000000 O
   O9         1.0     0.691683      0.880066      0.391120     Biso  1.000000 O
   O10        1.0     0.665386      0.765889      0.656345     Biso  1.000000 O
   O11        1.0     0.192589      0.383539      0.384868     Biso  1.000000 O
   O12        1.0     0.170034      0.276635      0.652347     Biso  1.000000 O
   O13        1.0     0.278164      0.753020      0.657863     Biso  1.000000 O
   O14        1.0     0.345133      0.852282      0.379650     Biso  1.000000 O
   O15        1.0     0.780863      0.244026      0.660971     Biso  1.000000 O
   O16        1.0     0.843297      0.346491      0.386067     Biso  1.000000 O
   O17        1.0     0.213406      0.012841      0.493227     Biso  1.000000 O
   O18        1.0     0.366742      0.866196      0.762475     Biso  1.000000 O
   O19        1.0     0.357284      0.074215      0.142208     Biso  1.000000 O
   O20        1.0     0.709973      0.502082      0.505054     Biso  1.000000 O
   O21        1.0     0.868588      0.363153      0.764269     Biso  1.000000 O
   O22        1.0     0.856337      0.561684      0.145474     Biso  1.000000 O
   O23        1.0     0.787027      0.985753      0.506674     Biso  1.000000 O
   O24        1.0     0.633408      0.131810      0.237933     Biso  1.000000 O
   O25        1.0     0.643390      0.924841      0.858166     Biso  1.000000 O
   O26        1.0     0.290425      0.496435      0.495264     Biso  1.000000 O
   O27        1.0     0.132025      0.635663      0.235721     Biso  1.000000 O
   O28        1.0     0.143925      0.436792      0.854385     Biso  1.000000 O
   N1         1.0     0.229874      0.139228      0.913328     Biso  1.000000 N
   N2         1.0     0.730482      0.629083      0.918982     Biso  1.000000 N
   N3         1.0     0.770429      0.859427      0.086837     Biso  1.000000 N
   N4         1.0     0.270066      0.369052      0.081156     Biso  1.000000 N
   N5         1.0     0.499892      0.035321      0.360870     Biso  1.000000 N
   N6         1.0     0.999036      0.533882      0.360611     Biso  1.000000 N
   N7         1.0     0.500312      0.964136      0.640489     Biso  1.000000 N
   N8         1.0     0.001433      0.465230      0.638730     Biso  1.000000 N
   C1         1.0     0.472831      0.189095      0.444670     Biso  1.000000 C
   C2         1.0     0.305031      0.226978      0.874046     Biso  1.000000 C
   C3         1.0     0.971719      0.687677      0.444222     Biso  1.000000 C
   C4         1.0     0.805551      0.716136      0.881366     Biso  1.000000 C
   C5         1.0     0.511457      0.166748      0.552460     Biso  1.000000 C
   C6         1.0     0.011255      0.667738      0.550508     Biso  1.000000 C
   C7         1.0     0.527288      0.810316      0.556711     Biso  1.000000 C
   C8         1.0     0.695409      0.770815      0.126350     Biso  1.000000 C
   C9         1.0     0.799860      0.903260      0.935970     Biso  1.000000 C
   C10        1.0     0.700665      0.585086      0.070154     Biso  1.000000 C
   C11        1.0     0.028837      0.311551      0.555089     Biso  1.000000 C
   C12        1.0     0.194838      0.283180      0.118434     Biso  1.000000 C
   C13        1.0     0.300029      0.412722      0.930059     Biso  1.000000 C
   C14        1.0     0.200153      0.095995      0.064118     Biso  1.000000 C
   C15        1.0     0.488576      0.832822      0.449048     Biso  1.000000 C
   C16        1.0     0.989345      0.331253      0.448756     Biso  1.000000 C
   C17        1.0     0.468185      0.061090      0.245155     Biso  1.000000 C
   C18        1.0     0.223194      0.959717      0.857924     Biso  1.000000 C
   C19        1.0     0.965894      0.557116      0.247102     Biso  1.000000 C
   C20        1.0     0.724541      0.449519      0.862788     Biso  1.000000 C
   C21        1.0     0.532246      0.938260      0.755895     Biso  1.000000 C
   C22        1.0     0.777039      0.038597      0.142713     Biso  1.000000 C
   C23        1.0     0.034429      0.441824      0.752436     Biso  1.000000 C
   C24        1.0     0.276076      0.548817      0.137042     Biso  1.000000 C
   P1         1.0     0.299841      0.919378      0.710822     Biso  1.000000 P
   P2         1.0     0.367361      0.051929      0.281612     Biso  1.000000 P
   P3         1.0     0.801143      0.413076      0.713929     Biso  1.000000 P
   P4         1.0     0.865094      0.543079      0.285523     Biso  1.000000 P
   P5         1.0     0.700308      0.078872      0.289665     Biso  1.000000 P
   P6         1.0     0.633154      0.946892      0.718910     Biso  1.000000 P
   P7         1.0     0.199500      0.585504      0.285929     Biso  1.000000 P
   P8         1.0     0.135217      0.455449      0.714296     Biso  1.000000 P
   Al1        1.0     0.251078      0.253230      0.498920     Biso  1.000000 Al
   Al2        1.0     0.750063      0.245815      0.500530     Biso  1.000000 Al
   Al3        1.0     0.749301      0.745280      0.501332     Biso  1.000000 Al
   Al4        1.0     0.250345      0.752756      0.499534     Biso  1.000000 Al
   H1         1.0     0.412916      0.176826      0.489288     Biso  1.000000 H
   H2         1.0     0.485795      0.334627      0.376157     Biso  1.000000 H
   H3         1.0     0.324335      0.267960      0.763199     Biso  1.000000 H
   H4         1.0     0.341636      0.114212      0.911731     Biso  1.000000 H
   H5         1.0     0.911932      0.672937      0.489601     Biso  1.000000 H
   H6         1.0     0.983299      0.833308      0.375352     Biso  1.000000 H
   H7         1.0     0.826225      0.753493      0.770737     Biso  1.000000 H
   H8         1.0     0.841563      0.603952      0.921338     Biso  1.000000 H
   H9         1.0     0.570862      0.193461      0.510501     Biso  1.000000 H
   H10        1.0     0.486967      0.273387      0.617809     Biso  1.000000 H
   H11        1.0     0.070521      0.695897      0.507102     Biso  1.000000 H
   H12        1.0     0.987160      0.774400      0.616040     Biso  1.000000 H
   H13        1.0     0.514247      0.664881      0.625365     Biso  1.000000 H
   H14        1.0     0.587216      0.822343      0.512071     Biso  1.000000 H
   H15        1.0     0.658601      0.883206      0.088948     Biso  1.000000 H
   H16        1.0     0.676246      0.729619      0.237185     Biso  1.000000 H
   H17        1.0     0.854520      0.968722      0.906904     Biso  1.000000 H
   H18        1.0     0.763335      0.012581      0.894602     Biso  1.000000 H
   H19        1.0     0.645883      0.520626      0.098800     Biso  1.000000 H
   H20        1.0     0.736911      0.474586      0.111230     Biso  1.000000 H
   H21        1.0     0.017474      0.165807      0.623880     Biso  1.000000 H
   H22        1.0     0.088605      0.326748      0.509549     Biso  1.000000 H
   H23        1.0     0.159164      0.395882      0.077944     Biso  1.000000 H
   H24        1.0     0.173917      0.246359      0.229032     Biso  1.000000 H
   H25        1.0     0.354908      0.476519      0.901605     Biso  1.000000 H
   H26        1.0     0.264024      0.523762      0.888744     Biso  1.000000 H
   H27        1.0     0.145296      0.031845      0.092788     Biso  1.000000 H
   H28        1.0     0.236226      0.985684      0.105961     Biso  1.000000 H
   H29        1.0     0.512837      0.725820      0.383876     Biso  1.000000 H
   H30        1.0     0.429155      0.806530      0.491263     Biso  1.000000 H
   H31        1.0     0.013695      0.224895      0.383121     Biso  1.000000 H
   H32        1.0     0.930101      0.302540      0.491923     Biso  1.000000 H
   H33        1.0     0.487175      0.205383      0.179417     Biso  1.000000 H
   H34        1.0     0.493685      0.946076      0.187556     Biso  1.000000 H
   H35        1.0     0.216282      0.828409      0.940197     Biso  1.000000 H
   H36        1.0     0.172850      0.981615      0.826753     Biso  1.000000 H
   H37        1.0     0.983629      0.701890      0.180837     Biso  1.000000 H
   H38        1.0     0.991363      0.442608      0.189031     Biso  1.000000 H
   H39        1.0     0.718659      0.317621      0.944402     Biso  1.000000 H
   H40        1.0     0.673610      0.470006      0.833486     Biso  1.000000 H
   H41        1.0     0.507020      0.053551      0.813414     Biso  1.000000 H
   H42        1.0     0.513183      0.794158      0.821862     Biso  1.000000 H
   H43        1.0     0.827189      0.016084      0.174509     Biso  1.000000 H
   H44        1.0     0.784191      0.170227      0.060625     Biso  1.000000 H
   H45        1.0     0.009026      0.556550      0.810357     Biso  1.000000 H
   H46        1.0     0.016500      0.297182      0.818729     Biso  1.000000 H
   H47        1.0     0.327083      0.528713      0.166090     Biso  1.000000 H
   H48        1.0     0.281892      0.680460      0.055266     Biso  1.000000 H
   H49        1.0     0.660571      0.489122      0.568162     Biso  1.000000 H
   H50        1.0     0.823426      0.963104      0.555183     Biso  1.000000 H
   H51        1.0     0.177207      0.035738      0.444276     Biso  1.000000 H
   H52        1.0     0.339742      0.509434      0.431834     Biso  1.000000 H
   H53        1.0     0.941398      0.435072      0.689060     Biso  1.000000 H
   H54        1.0     0.560346      0.063221      0.311967     Biso  1.000000 H
   H55        1.0     0.059068      0.564053      0.310270     Biso  1.000000 H
   H56        1.0     0.694938      0.747950      0.883464     Biso  1.000000 H
   H57        1.0     0.194367      0.258870      0.878302     Biso  1.000000 H
   H58        1.0     0.806075      0.739906      0.121464     Biso  1.000000 H
   H59        1.0     0.439946      0.936003      0.689270     Biso  1.000000 H
   H60        1.0     0.305533      0.249866      0.116910     Biso  1.000000 H
