data_A
_audit_creation_date              2016-06-29
_audit_creation_method            'Materials Studio'
_symmetry_space_group_name_H-M    'P1'
_symmetry_Int_Tables_number       1
_symmetry_cell_setting            triclinic
loop_
_symmetry_equiv_pos_as_xyz
  x,y,z
_cell_length_a                    20.7307
_cell_length_b                    6.1103
_cell_length_c                    11.9789
_cell_angle_alpha                 84.8210
_cell_angle_beta                  75.3900
_cell_angle_gamma                 80.5516
loop_
_atom_site_label
_atom_site_type_symbol
_atom_site_fract_x
_atom_site_fract_y
_atom_site_fract_z
_atom_site_U_iso_or_equiv
_atom_site_adp_type
_atom_site_occupancy
O1     O     0.30409   0.13179   0.60461   0.00000  Uiso   1.00
O2     O     0.31653   0.18256   0.35269   0.00000  Uiso   1.00
N3     N     0.24628   0.17170   0.89514   0.00000  Uiso   1.00
C4     C     0.45850   0.19895   0.44553   0.00000  Uiso   1.00
C5     C     0.31436   0.16732   0.91212   0.00000  Uiso   1.00
O6     O     0.80748   0.62639   0.60550   0.00000  Uiso   1.00
O7     O     0.81437   0.69525   0.35982   0.00000  Uiso   1.00
N8     N     0.74882   0.65338   0.89698   0.00000  Uiso   1.00
C9     C     0.95250   0.71280   0.46076   0.00000  Uiso   1.00
C10    C     0.81627   0.64966   0.91696   0.00000  Uiso   1.00
O11    O     0.73368   0.25732   0.34920   0.00000  Uiso   1.00
O12    O     0.65164   0.20756   0.59264   0.00000  Uiso   1.00
C13    C     0.50078   0.21664   0.53142   0.00000  Uiso   1.00
O14    O     0.23216   0.76632   0.35020   0.00000  Uiso   1.00
O15    O     0.15271   0.72148   0.61431   0.00000  Uiso   1.00
C16    C    -0.00562   0.72336   0.54835   0.00000  Uiso   1.00
O17    O     0.69121   0.88190   0.39022   0.00000  Uiso   1.00
O18    O     0.66886   0.79688   0.64070   0.00000  Uiso   1.00
N19    N     0.76737   0.81390   0.10603   0.00000  Uiso   1.00
C20    C     0.53012   0.81838   0.54183   0.00000  Uiso   1.00
C21    C     0.69970   0.81908   0.08564   0.00000  Uiso   1.00
C22    C     0.81631   0.83247  -0.00656   0.00000  Uiso   1.00
C23    C     0.69953   0.63523   1.00919   0.00000  Uiso   1.00
O24    O     0.19062   0.38459   0.38641   0.00000  Uiso   1.00
O25    O     0.17124   0.29278   0.63439   0.00000  Uiso   1.00
N26    N     0.26803   0.32808   0.10334   0.00000  Uiso   1.00
C27    C     0.03389   0.33198   0.53265   0.00000  Uiso   1.00
C28    C     0.19977   0.33705   0.08436   0.00000  Uiso   1.00
C29    C     0.31623   0.34681  -0.01031   0.00000  Uiso   1.00
C30    C     0.19831   0.15475   1.00829   0.00000  Uiso   1.00
O31    O     0.27568   0.74821   0.64792   0.00000  Uiso   1.00
O32    O     0.34318   0.81391   0.43571   0.00000  Uiso   1.00
C33    C     0.48789   0.79799   0.45783   0.00000  Uiso   1.00
O34    O     0.78018   0.23635   0.64495   0.00000  Uiso   1.00
O35    O     0.84683   0.29054   0.40950   0.00000  Uiso   1.00
C36    C     0.99239   0.31798   0.44632   0.00000  Uiso   1.00
P37    P     0.30250  -0.06679   0.68963   0.00000  Uiso   1.00
P38    P     0.36042  -0.05100   0.32427   0.00000  Uiso   1.00
O39    O     0.20321   0.02986   0.50085   0.00000  Uiso   1.00
O40    O     0.37479  -0.14880   0.71688   0.00000  Uiso   1.00
O41    O     0.35784  -0.13667   0.20161   0.00000  Uiso   1.00
N42    N     0.48395  -0.00358   0.38107   0.00000  Uiso   1.00
C43    C     0.45192  -0.03635   0.29005   0.00000  Uiso   1.00
C44    C     0.24372  -0.01577   0.82953   0.00000  Uiso   1.00
P45    P     0.80585   0.42315   0.68958   0.00000  Uiso   1.00
P46    P     0.86132   0.48399   0.31944   0.00000  Uiso   1.00
O47    O     0.70650   0.51421   0.50264   0.00000  Uiso   1.00
O48    O     0.87858   0.33710   0.71450   0.00000  Uiso   1.00
O49    O     0.85441   0.44609   0.19148   0.00000  Uiso   1.00
N50    N     0.98275   0.52881   0.38315   0.00000  Uiso   1.00
C51    C     0.95124   0.52002   0.28862   0.00000  Uiso   1.00
C52    C     0.74695   0.46744   0.82938   0.00000  Uiso   1.00
P53    P     0.70686   0.07506   0.30435   0.00000  Uiso   1.00
P54    P     0.62772   0.02249   0.67751   0.00000  Uiso   1.00
O55    O     0.78669  -0.02830   0.50528   0.00000  Uiso   1.00
O56    O     0.63825   0.18526   0.26531   0.00000  Uiso   1.00
O57    O     0.63214   0.05060   0.80910   0.00000  Uiso   1.00
N58    N     0.50067   0.01347   0.61173   0.00000  Uiso   1.00
C59    C     0.53483   0.02473   0.70504   0.00000  Uiso   1.00
C60    C     0.76999   0.00278   0.17098   0.00000  Uiso   1.00
P61    P     0.20783   0.58042   0.30104   0.00000  Uiso   1.00
P62    P     0.12912   0.50422   0.67830   0.00000  Uiso   1.00
O63    O     0.28582   0.48567   0.50238   0.00000  Uiso   1.00
O64    O     0.14031   0.69029   0.25749   0.00000  Uiso   1.00
O65    O     0.13962   0.49327   0.80873   0.00000  Uiso   1.00
N66    N     0.00064   0.50677   0.61485   0.00000  Uiso   1.00
C67    C     0.03658   0.49452   0.70777   0.00000  Uiso   1.00
C68    C     0.27185   0.51495   0.16925   0.00000  Uiso   1.00
Al69   Al    0.24586   0.25382   0.49895   0.00000  Uiso   1.00
Al70   Al    0.75457   0.25150   0.49814   0.00000  Uiso   1.00
Al71   Al    0.74474   0.74767   0.49766   0.00000  Uiso   1.00
Al72   Al    0.24972   0.76428   0.50093   0.00000  Uiso   1.00
H73    H     0.40556   0.20364   0.49375   0.00000  Uiso   1.00
H74    H     0.46044   0.34320   0.38368   0.00000  Uiso   1.00
H75    H     0.34885   0.19523   0.82825   0.00000  Uiso   1.00
H76    H     0.33261   0.00299   0.94896   0.00000  Uiso   1.00
H77    H     0.90042   0.69830   0.50753   0.00000  Uiso   1.00
H78    H     0.95110   0.86948   0.40805   0.00000  Uiso   1.00
H79    H     0.85155   0.67723   0.83381   0.00000  Uiso   1.00
H80    H     0.83463   0.48580   0.95436   0.00000  Uiso   1.00
H81    H     0.55278   0.23757   0.48590   0.00000  Uiso   1.00
H82    H     0.47813   0.36109   0.58367   0.00000  Uiso   1.00
H83    H     0.04463   0.76343   0.50299   0.00000  Uiso   1.00
H84    H    -0.03061   0.85332   0.60902   0.00000  Uiso   1.00
H85    H     0.53062   0.66953   0.60035   0.00000  Uiso   1.00
H86    H     0.58213   0.83308   0.49404   0.00000  Uiso   1.00
H87    H     0.68302   0.98182   0.04538   0.00000  Uiso   1.00
H88    H     0.66372   0.79968   0.16914   0.00000  Uiso   1.00
H89    H     0.86654   0.82137   0.01021   0.00000  Uiso   1.00
H90    H     0.80461   0.99511  -0.05103   0.00000  Uiso   1.00
H91    H     0.64935   0.64602   0.99250   0.00000  Uiso   1.00
H92    H     0.71079   0.47171   1.05386   0.00000  Uiso   1.00
H93    H     0.03833   0.17164   0.58153   0.00000  Uiso   1.00
H94    H     0.08448   0.36632   0.48624   0.00000  Uiso   1.00
H95    H     0.18289   0.50124   0.04585   0.00000  Uiso   1.00
H96    H     0.16437   0.31543   0.16827   0.00000  Uiso   1.00
H97    H     0.36725   0.33285   0.00342   0.00000  Uiso   1.00
H98    H     0.30529   0.51218  -0.05315   0.00000  Uiso   1.00
H99    H     0.14756   0.16751   0.99356   0.00000  Uiso   1.00
H100   H     0.20990  -0.00912   1.05243   0.00000  Uiso   1.00
H101   H     0.51304   0.65697   0.40418   0.00000  Uiso   1.00
H102   H     0.43767   0.75905   0.50467   0.00000  Uiso   1.00
H103   H     1.02114   0.19358   0.38440   0.00000  Uiso   1.00
H104   H     0.94441   0.25818   0.49028   0.00000  Uiso   1.00
H105   H     0.45935   0.09600   0.22126   0.00000  Uiso   1.00
H106   H     0.47820  -0.19163   0.24973   0.00000  Uiso   1.00
H107   H     0.25130  -0.17509   0.88060   0.00000  Uiso   1.00
H108   H     0.19376  -0.00385   0.81202   0.00000  Uiso   1.00
H109   H     0.95602   0.67270   0.23309   0.00000  Uiso   1.00
H110   H     0.97926   0.38247   0.23425   0.00000  Uiso   1.00
H111   H     0.75388   0.30707   0.87951   0.00000  Uiso   1.00
H112   H     0.69705   0.48288   0.81122   0.00000  Uiso   1.00
H113   H     0.51103   0.17387   0.75299   0.00000  Uiso   1.00
H114   H     0.52529  -0.11898   0.76593   0.00000  Uiso   1.00
H115   H     0.81795  -0.01942   0.19675   0.00000  Uiso   1.00
H116   H     0.76808   0.15907   0.11648   0.00000  Uiso   1.00
H117   H     0.01218   0.62542   0.76845   0.00000  Uiso   1.00
H118   H     0.02950   0.33528   0.75623   0.00000  Uiso   1.00
H119   H     0.31938   0.48470   0.19627   0.00000  Uiso   1.00
H120   H     0.27153   0.67198   0.11566   0.00000  Uiso   1.00
H121   H     0.66448   1.51135   0.56097   0.00000  Uiso   1.00
H122   H     0.80812   0.93887   0.56941   0.00000  Uiso   1.00
H123   H     1.15944   1.03601   0.55468   0.00000  Uiso   1.00
H124   H     1.30935   1.45889   0.56393   0.00000  Uiso   1.00
H125   H     0.90558   0.27766   0.77451   0.00000  Uiso   1.00
H126   H     0.61313   0.26436   0.20897   0.00000  Uiso   1.00
H127   H     0.11520   0.76881   0.20112   0.00000  Uiso   1.00
H128   H     0.67398  -0.03882   0.82253   0.00000  Uiso   1.00
H129   H     0.18197   0.39378   0.81195   0.00000  Uiso   1.00
H130   H     0.81546   0.55023   0.17308   0.00000  Uiso   1.00
H131   H     0.40409   0.79059   0.77329   0.00000  Uiso   1.00
H132   H     0.32214   0.96275   0.17025   0.00000  Uiso   1.00
loop_
_geom_bond_atom_site_label_1
_geom_bond_atom_site_label_2
_geom_bond_distance
_geom_bond_site_symmetry_2
_ccdc_geom_bond_type
O1     Al69    1.980   .     S
O1     P37     1.511   .     D
O2     P38     1.577   .     D
O2     Al69    2.010   .     S
N3     C5      1.472   .     S
N3     C30     1.471   .     S
N3     C44     1.462   .     S
C4     C13     1.531   .     S
C4     H73     1.101   .     S
C4     N42     1.469   .     S
C4     H74     1.098   .     S
C5     H76     1.107   .     S
C5     H75     1.094   .     S
C5     C29     1.511   1_556 S
O6     Al71    2.066   .     S
O6     P45     1.526   .     D
O7     P46     1.520   .     D
O7     Al71    1.912   .     S
N8     C10     1.473   .     S
N8     C23     1.477   .     S
N8     C52     1.464   .     S
C9     H77     1.098   .     S
C9     H78     1.099   .     S
C9     N50     1.478   .     S
C9     C16     1.533   1_655 S
C10    H80     1.108   .     S
C10    H79     1.095   .     S
C10    C22     1.507   1_556 S
O11    P53     1.517   .     D
O11    Al70    1.935   .     S
O12    P54     1.510   .     D
C13    N58     1.500   .     S
C13    H82     1.098   .     S
C13    H81     1.101   .     S
O14    P61     1.533   .     D
O14    Al72    1.928   .     S
O15    P62     1.559   .     D
C16    N66     1.486   .     S
C16    H83     1.102   .     S
C16    H84     1.098   .     S
C16    C9      1.533   1_455 S
O17    Al71    1.947   .     S
O17    P53     1.515   1_565 S
O18    Al71    2.020   .     S
O18    P54     1.535   1_565 S
N19    C21     1.478   .     S
N19    C22     1.477   .     S
N19    C60     1.464   1_565 S
C20    H86     1.100   .     S
C20    H85     1.097   .     S
C20    C33     1.516   .     S
C20    N58     1.476   1_565 S
C21    H88     1.096   .     S
C21    H87     1.107   .     S
C21    C23     1.513   1_554 S
C22    H90     1.105   .     S
C22    H89     1.100   .     S
C22    C10     1.507   1_554 S
C23    H92     1.109   .     S
C23    H91     1.098   .     S
C23    C21     1.513   1_556 S
O24    P61     1.530   .     S
O24    Al69    2.013   .     S
O25    Al69    1.940   .     S
O25    P62     1.493   .     S
N26    C28     1.480   .     S
N26    C68     1.469   .     S
N26    C29     1.479   .     S
C27    H93     1.098   .     S
C27    H94     1.100   .     S
C27    N66     1.480   .     S
C27    C36     1.519   1_455 S
C28    H96     1.096   .     S
C28    H95     1.107   .     S
C28    C30     1.510   1_554 S
C29    H98     1.107   .     S
C29    H97     1.099   .     S
C29    C5      1.511   1_554 S
C30    H99     1.099   .     S
C30    H100    1.109   .     S
C30    C28     1.510   1_556 S
O31    Al72    1.957   .     S
O31    P37     1.512   1_565 S
O32    Al72    1.960   .     S
O32    P38     1.499   1_565 S
C33    H102    1.104   .     S
C33    H101    1.100   .     S
C33    N42     1.458   1_565 S
O34    Al70    1.952   .     S
O34    P45     1.525   .     S
O35    P46     1.541   .     S
O35    Al70    1.980   .     S
C36    H104    1.105   .     S
C36    N50     1.445   .     S
C36    H103    1.101   .     S
C36    C27     1.519   1_655 S
P37    C44     1.825   .     S
P37    O40     1.604   .     S
P37    O31     1.512   1_545 S
P38    C43     1.852   .     S
P38    O41     1.620   .     S
P38    O32     1.499   1_545 S
O39    Al69    1.743   .     S
O39    Al72    1.746   1_545 S
O39    H123    0.969   1_445 S
O40    H131    1.025   1_545 S
O41    H132    1.005   1_545 S
N42    C43     1.455   .     S
N42    C33     1.458   1_545 S
C43    H106    1.100   .     S
C43    H105    1.101   .     S
C44    H108    1.097   .     S
C44    H107    1.112   .     S
P45    C52     1.819   .     S
P45    O48     1.605   .     S
P46    C51     1.853   .     S
P46    O49     1.615   .     S
O47    Al71    1.732   .     S
O47    Al70    1.742   .     S
O47    H121    0.971   1_545 S
O48    H125    1.025   .     S
O49    H130    1.001   .     S
N50    C51     1.452   .     S
C51    H109    1.099   .     S
C51    H110    1.103   .     S
C52    H112    1.097   .     S
C52    H111    1.110   .     S
P53    O56     1.631   .     S
P53    C60     1.828   .     S
P53    O17     1.515   1_545 S
P54    C59     1.868   .     S
P54    O57     1.628   .     S
P54    O18     1.535   1_545 S
O55    Al70    1.733   .     S
O55    Al71    1.758   1_545 S
O55    H122    0.971   1_545 S
O56    H126    0.998   .     S
O57    H128    0.988   .     S
N58    C59     1.478   .     S
N58    C20     1.476   1_545 S
C59    H113    1.099   .     S
C59    H114    1.100   .     S
C60    H116    1.108   .     S
C60    H115    1.098   .     S
C60    N19     1.464   1_545 S
P61    O64     1.637   .     S
P61    C68     1.816   .     S
P62    O65     1.625   .     S
P62    C67     1.871   .     S
O63    Al72    1.744   .     S
O63    Al69    1.763   .     S
O63    H124    0.970   1_445 S
O64    H127    0.997   .     S
O65    H129    0.990   .     S
N66    C67     1.478   .     S
C67    H117    1.100   .     S
C67    H118    1.099   .     S
C68    H120    1.105   .     S
C68    H119    1.095   .     S
Al71   O55     1.758   1_565 S
Al72   O39     1.746   1_565 S
H121   O47     0.971   1_565 S
H122   O55     0.971   1_565 S
H123   O39     0.969   1_665 S
H124   O63     0.970   1_665 S
H131   O40     1.025   1_565 S
H132   O41     1.005   1_565 S
