#======================================================================

# CRYSTAL DATA

#----------------------------------------------------------------------

data_VESTA_phase_1


_chemical_name_common                  'CIF file                              '
_cell_length_a                         18.57037
_cell_length_b                         6.93651
_cell_length_c                         11.99121
_cell_angle_alpha                      69.88945
_cell_angle_beta                       89.09577
_cell_angle_gamma                      91.54968
_space_group_name_H-M_alt              'P 1'
_space_group_IT_number                 1

loop_
_space_group_symop_operation_xyz
   'x, y, z'

loop_
   _atom_site_label
   _atom_site_occupancy
   _atom_site_fract_x
   _atom_site_fract_y
   _atom_site_fract_z
   _atom_site_adp_type
   _atom_site_B_iso_or_equiv
   _atom_site_type_symbol
   O1         1.0     0.320365      0.125316      0.613176     Biso  1.000000 O
   O2         1.0     0.318838      0.263814      0.373184     Biso  1.000000 O
   O3         1.0     0.820386      0.625272      0.613143     Biso  1.000000 O
   O4         1.0     0.818769      0.763662      0.373096     Biso  1.000000 O
   O5         1.0     0.677632      0.235009      0.390150     Biso  1.000000 O
   O6         1.0     0.685788      0.100077      0.630382     Biso  1.000000 O
   O7         1.0     0.177686      0.734895      0.390452     Biso  1.000000 O
   O8         1.0     0.185846      0.599894      0.630672     Biso  1.000000 O
   O9         1.0     0.679891      0.872192      0.382629     Biso  1.000000 O
   O10        1.0     0.681485      0.733670      0.622694     Biso  1.000000 O
   O11        1.0     0.179875      0.372167      0.382698     Biso  1.000000 O
   O12        1.0     0.181449      0.233739      0.622607     Biso  1.000000 O
   O13        1.0     0.322440      0.762321      0.605898     Biso  1.000000 O
   O14        1.0     0.314168      0.897498      0.365468     Biso  1.000000 O
   O15        1.0     0.822442      0.262395      0.605627     Biso  1.000000 O
   O16        1.0     0.814154      0.397341      0.365328     Biso  1.000000 O
   O17        1.0     0.211201      0.994522      0.498877     Biso  1.000000 O
   O18        1.0     0.401006      0.861555      0.749852     Biso  1.000000 O
   O19        1.0     0.300349      0.212146      0.175303     Biso  1.000000 O
   O20        1.0     0.711150      0.494576      0.498724     Biso  1.000000 O
   O21        1.0     0.900977      0.361220      0.749764     Biso  1.000000 O
   O22        1.0     0.800334      0.711962      0.175212     Biso  1.000000 O
   O23        1.0     0.789037      0.002901      0.497174     Biso  1.000000 O
   O24        1.0     0.599114      0.135707      0.246137     Biso  1.000000 O
   O25        1.0     0.699725      0.785621      0.820571     Biso  1.000000 O
   O26        1.0     0.289087      0.502842      0.497325     Biso  1.000000 O
   O27        1.0     0.099226      0.636278      0.246161     Biso  1.000000 O
   O28        1.0     0.199578      0.285134      0.820711     Biso  1.000000 O
   C1         1.0     0.475014      0.204273      0.450616     Biso  1.000000 C
   C2         1.0     0.974983      0.704232      0.450668     Biso  1.000000 C
   C3         1.0     0.529860      0.142484      0.548369     Biso  1.000000 C
   C4         1.0     0.821032      0.185849      0.036045     Biso  1.000000 C
   C5         1.0     0.692312      0.093920      0.040602     Biso  1.000000 C
   C6         1.0     0.029781      0.642198      0.548512     Biso  1.000000 C
   C7         1.0     0.321091      0.685784      0.036253     Biso  1.000000 C
   C8         1.0     0.192387      0.594276      0.040888     Biso  1.000000 C
   C9         1.0     0.525070      0.791498      0.545099     Biso  1.000000 C
   C10        1.0     0.025168      0.291548      0.544837     Biso  1.000000 C
   C11        1.0     0.470241      0.853241      0.447270     Biso  1.000000 C
   C12        1.0     0.179017      0.811850      0.959893     Biso  1.000000 C
   C13        1.0     0.307777      0.903437      0.955338     Biso  1.000000 C
   C14        1.0     0.970385      0.353452      0.446928     Biso  1.000000 C
   C15        1.0     0.678911      0.311490      0.959587     Biso  1.000000 C
   C16        1.0     0.807624      0.403423      0.955075     Biso  1.000000 C
   C17        1.0     0.430113      0.141759      0.269560     Biso  1.000000 C
   C18        1.0     0.253136      0.810572      0.788040     Biso  1.000000 C
   C19        1.0     0.930090      0.641992      0.269492     Biso  1.000000 C
   C20        1.0     0.753112      0.310313      0.787754     Biso  1.000000 C
   C21        1.0     0.569959      0.854392      0.726129     Biso  1.000000 C
   C22        1.0     0.746865      0.187497      0.207763     Biso  1.000000 C
   C23        1.0     0.069915      0.354005      0.726098     Biso  1.000000 C
   C24        1.0     0.247045      0.687402      0.208141     Biso  1.000000 C
   H1         1.0     0.513489      0.630719      0.601852     Biso  1.000000 H
   H2         1.0     0.580779      0.804332      0.510124     Biso  1.000000 H
   H3         1.0     0.946237      0.802200      0.217554     Biso  1.000000 H
   H4         1.0     0.754845      0.142444      0.829630     Biso  1.000000 H
   H5         1.0     0.478405      0.763854      0.388177     Biso  1.000000 H
   H6         1.0     0.414525      0.825576      0.482725     Biso  1.000000 H
   H7         1.0     0.056934      0.447124      0.781412     Biso  1.000000 H
   H8         1.0     0.294958      0.654400      0.263549     Biso  1.000000 H
   H9         1.0     0.486624      0.365013      0.393807     Biso  1.000000 H
   H10        1.0     0.419304      0.191628      0.485585     Biso  1.000000 H
   H11        1.0     0.670715      0.525666      0.445338     Biso  1.000000 H
   H12        1.0     0.054040      0.193452      0.777779     Biso  1.000000 H
   H13        1.0     0.245233      0.855218      0.166199     Biso  1.000000 H
   H14        1.0     0.521795      0.231988      0.607411     Biso  1.000000 H
   H15        1.0     0.585550      0.169910      0.512841     Biso  1.000000 H
   H16        1.0     0.329349      0.471360      0.551082     Biso  1.000000 H
   H17        1.0     0.942704      0.548307      0.214356     Biso  1.000000 H
   H18        1.0     0.705233      0.343494      0.732248     Biso  1.000000 H
   H19        1.0     0.033889      0.600491      0.327833     Biso  1.000000 H
   H20        1.0     0.966193      0.395578      0.667641     Biso  1.000000 H
   H21        1.0     0.729438      0.572050      0.840628     Biso  1.000000 H
   H22        1.0     0.533852      0.099863      0.327976     Biso  1.000000 H
   H23        1.0     0.466230      0.896171      0.667712     Biso  1.000000 H
   H24        1.0     0.770503      0.925539      0.155128     Biso  1.000000 H
   H25        1.0     0.270560      0.425669      0.155292     Biso  1.000000 H
   H26        1.0     0.229516      0.072264      0.840957     Biso  1.000000 H
   H27        1.0     0.170700      0.025170      0.445625     Biso  1.000000 H
   H28        1.0     0.829374      0.971843      0.550774     Biso  1.000000 H
   H29        1.0     0.554011      0.693947      0.777904     Biso  1.000000 H
   H30        1.0     0.557064      0.947692      0.781362     Biso  1.000000 H
   H31        1.0     0.442628      0.047800      0.214555     Biso  1.000000 H
   H32        1.0     0.446395      0.301814      0.217544     Biso  1.000000 H
   H33        1.0     0.205237      0.843849      0.732616     Biso  1.000000 H
   H34        1.0     0.254846      0.642743      0.829959     Biso  1.000000 H
   H35        1.0     0.744913      0.355251      0.165713     Biso  1.000000 H
   H36        1.0     0.794847      0.155070      0.263009     Biso  1.000000 H
   H37        1.0     0.297718      0.007832      0.004935     Biso  1.000000 H
   H38        1.0     0.354779      0.961963      0.895192     Biso  1.000000 H
   H39        1.0     0.145391      0.535650      0.100996     Biso  1.000000 H
   H40        1.0     0.202515      0.489850      0.991347     Biso  1.000000 H
   H41        1.0     0.333876      0.585514      0.985308     Biso  1.000000 H
   H42        1.0     0.366560      0.685467      0.093936     Biso  1.000000 H
   H43        1.0     0.645321      0.035223      0.100765     Biso  1.000000 H
   H44        1.0     0.702487     -0.010515      0.991068     Biso  1.000000 H
   H45        1.0     0.833970      0.085564      0.985173     Biso  1.000000 H
   H46        1.0     0.866426      0.185811      0.093834     Biso  1.000000 H
   H47        1.0     0.665919      0.411706      0.010469     Biso  1.000000 H
   H48        1.0     0.633534      0.311443      0.901789     Biso  1.000000 H
   H49        1.0     0.854617      0.462143      0.894968     Biso  1.000000 H
   H50        1.0     0.797485      0.507768      0.004661     Biso  1.000000 H
   H51        1.0     0.085502      0.669862      0.513110     Biso  1.000000 H
   H52        1.0     0.021624      0.731368      0.607708     Biso  1.000000 H
   H53        1.0     0.013617      0.130644      0.601396     Biso  1.000000 H
   H54        1.0     0.080909      0.304520      0.509969     Biso  1.000000 H
   H55        1.0     0.919266      0.691557      0.485596     Biso  1.000000 H
   H56        1.0     0.986613      0.865070      0.394042     Biso  1.000000 H
   H57        1.0     0.978704      0.264459      0.387668     Biso  1.000000 H
   H58        1.0     0.914654      0.325395      0.482279     Biso  1.000000 H
   H59        1.0     0.166045      0.912117      0.010771     Biso  1.000000 H
   H60        1.0     0.133646      0.811864      0.902057     Biso  1.000000 H
   N1         1.0     0.756727      0.089000      0.115427     Biso  1.000000 N
   N2         1.0     0.256805      0.589105      0.115724     Biso  1.000000 N
   N3         1.0     0.243342      0.908720      0.880523     Biso  1.000000 N
   N4         1.0     0.743227      0.408509      0.880233     Biso  1.000000 N
   N5         1.0     0.480056      0.075733      0.372886     Biso  1.000000 N
   N6         1.0     0.980082      0.576068      0.372757     Biso  1.000000 N
   N7         1.0     0.520006      0.920046      0.622816     Biso  1.000000 N
   N8         1.0     0.019989      0.419676      0.622760     Biso  1.000000 N
   Al1        1.0     0.250142      0.248774      0.497911     Biso  1.000000 Al
   Al2        1.0     0.750052      0.248719      0.497891     Biso  1.000000 Al
   Al3        1.0     0.750152      0.748717      0.497875     Biso  1.000000 Al
   Al4        1.0     0.250101      0.748632      0.498105     Biso  1.000000 Al
   P1         1.0     0.330318      0.896902      0.683720     Biso  1.000000 P
   P2         1.0     0.331691      0.125496      0.299255     Biso  1.000000 P
   P3         1.0     0.830323      0.396789      0.683547     Biso  1.000000 P
   P4         1.0     0.831658      0.625354      0.299176     Biso  1.000000 P
   P5         1.0     0.669809      0.100580      0.312243     Biso  1.000000 P
   P6         1.0     0.668416      0.871979      0.696555     Biso  1.000000 P
   P7         1.0     0.169874      0.600705      0.312423     Biso  1.000000 P
   P8         1.0     0.168376      0.371775      0.696626     Biso  1.000000 P
