_symmetry_space_group_name_H-M   'P 1'
_cell_length_a 19.031300
_cell_length_b 6.952100
_cell_length_c 11.386100
_cell_angle_alpha 90.000000
_cell_angle_beta 91.280000
_cell_angle_gamma 90.000000
_cell_volume 1506.090522
_symmetry_Int_Tables_number 1

loop_
_symmetry_equiv_pos_as_xyz
 'x, y, z'

loop_
_atom_site_label
_atom_site_type_symbol
_atom_site_fract_x
_atom_site_fract_y
_atom_site_fract_z
_atom_site_charge
O O 0.325300 0.173599 0.620700 0.000000
O O 0.309900 0.188900 0.363400 0.000000
C C 0.481300 0.190299 0.444600 0.000000
H H 0.495990 0.697470 0.610610 0.000000
H H 0.572850 0.763240 0.537950 0.000000
O O 0.825300 0.673599 0.620700 0.000000
O O 0.809900 0.688900 0.363400 0.000000
C C 0.981300 0.690299 0.444600 0.000000
H H 0.928060 0.624850 0.231420 0.000000
H H 0.802940 0.369859 0.777830 0.000000
O O 0.674700 0.173599 0.379300 0.000000
O O 0.690100 0.188900 0.636600 0.000000
C C 0.518700 0.190299 0.555400 0.000000
N N 0.741200 0.156400 0.113600 0.000000
C C 0.805800 0.124900 0.043500 0.000000
C C 0.678600 0.215800 0.040000 0.000000
H H 0.504350 0.697440 0.389820 0.000000
H H 0.427550 0.763379 0.461950 0.000000
O O 0.174700 0.673599 0.379300 0.000000
O O 0.190100 0.688900 0.636600 0.000000
C C 0.018700 0.690299 0.555400 0.000000
N N 0.241200 0.656400 0.113600 0.000000
C C 0.305800 0.624900 0.043500 0.000000
C C 0.178600 0.715800 0.040000 0.000000
H H 0.071940 0.624850 0.768580 0.000000
H H 0.275490 0.506860 0.251440 0.000000
O O 0.674700 0.826399 0.379300 0.000000
O O 0.690100 0.811100 0.636600 0.000000
C C 0.518700 0.809699 0.555400 0.000000
H H 0.504300 0.302520 0.389320 0.000000
H H 0.427620 0.236760 0.462630 0.000000
H H 0.702690 0.512790 0.562630 0.000000
O O 0.174700 0.326401 0.379300 0.000000
O O 0.190100 0.311100 0.636600 0.000000
C C 0.018700 0.309699 0.555400 0.000000
H H 0.071940 0.375150 0.768580 0.000000
H H 0.197060 0.630130 0.222170 0.000000
O O 0.325300 0.826399 0.620700 0.000000
O O 0.309900 0.811100 0.363400 0.000000
C C 0.481300 0.809699 0.444600 0.000000
N N 0.258800 0.843600 0.886400 0.000000
C C 0.194200 0.875100 0.956500 0.000000
C C 0.321400 0.784200 0.960000 0.000000
H H 0.495990 0.302550 0.610610 0.000000
H H 0.573260 0.236639 0.537860 0.000000
H H 0.297310 0.512790 0.437370 0.000000
O O 0.825300 0.326401 0.620700 0.000000
O O 0.809900 0.311100 0.363400 0.000000
C C 0.981300 0.309699 0.444600 0.000000
N N 0.758800 0.343600 0.886400 0.000000
C C 0.694200 0.375100 0.956500 0.000000
C C 0.821400 0.284200 0.960000 0.000000
H H 0.928060 0.375150 0.231420 0.000000
H H 0.726140 0.492760 0.743970 0.000000
Al Al 0.250000 0.249999 0.500000 0.000000
Al Al 0.750000 0.249999 0.500000 0.000000
Al Al 0.750000 0.749999 0.500000 0.000000
Al Al 0.250000 0.749999 0.500000 0.000000
P P 0.347400 0.000000 0.697400 0.000000
P P 0.326600 0.000000 0.302700 0.000000
O O 0.236300 0.000000 0.500400 0.000000
O O 0.405800 0.000000 0.794000 0.000000
O O 0.300800 0.000000 0.174700 0.000000
N N 0.480100 0.000000 0.380800 0.000000
C C 0.421800 0.000000 0.289600 0.000000
C C 0.273900 0.000000 0.800100 0.000000
P P 0.847400 0.500000 0.697400 0.000000
P P 0.826600 0.500000 0.302700 0.000000
O O 0.736300 0.500000 0.500400 0.000000
O O 0.905800 0.500000 0.794000 0.000000
O O 0.800800 0.500000 0.174700 0.000000
N N 0.980100 0.500000 0.380800 0.000000
C C 0.921800 0.500000 0.289600 0.000000
C C 0.773900 0.500000 0.800100 0.000000
P P 0.652600 0.000000 0.302600 0.000000
P P 0.673400 0.000000 0.697300 0.000000
O O 0.763700 0.000000 0.499600 0.000000
O O 0.594200 0.000000 0.206000 0.000000
O O 0.699200 0.000000 0.825300 0.000000
N N 0.519900 0.000000 0.619200 0.000000
C C 0.578200 0.000000 0.710400 0.000000
C C 0.726100 0.000000 0.199900 0.000000
P P 0.152600 0.500000 0.302600 0.000000
P P 0.173400 0.500000 0.697300 0.000000
O O 0.263700 0.500000 0.499600 0.000000
O O 0.094200 0.500000 0.206000 0.000000
O O 0.199200 0.500000 0.825300 0.000000
N N 0.019900 0.500000 0.619200 0.000000
C C 0.078200 0.500000 0.710400 0.000000
C C 0.226100 0.500000 0.199900 0.000000
H H 0.041120 0.502730 0.198620 0.000000
H H 0.955570 0.508150 0.765150 0.000000
H H 0.752540 0.002080 0.822950 0.000000
H H 0.566610 0.117320 0.224380 0.000000
H H 0.433390 0.882680 0.775610 0.000000
H H 0.748110 0.490580 0.176750 0.000000
H H 0.248060 0.995600 0.184560 0.000000
H H 0.252060 0.501579 0.816230 0.000000
H H 0.202690 0.987210 0.562630 0.000000
H H 0.797310 0.012790 0.437370 0.000000
H H 0.571940 0.875150 0.768580 0.000000
H H 0.571940 0.124850 0.768580 0.000000
H H 0.428060 0.875150 0.231420 0.000000
H H 0.428060 0.124850 0.231420 0.000000
H H 0.223360 0.977890 0.752810 0.000000
H H 0.302940 0.869859 0.777830 0.000000
H H 0.697060 0.130141 0.222170 0.000000
H H 0.775490 0.006860 0.251440 0.000000
H H 0.344620 0.881010 0.026380 0.000000
H H 0.365020 0.756930 0.900840 0.000000
H H 0.139560 0.743420 0.107200 0.000000
H H 0.156250 0.590719 0.993380 0.000000
H H 0.318450 0.559240 0.958650 0.000000
H H 0.358540 0.667731 0.072600 0.000000
H H 0.635360 0.236821 0.100460 0.000000
H H 0.663700 0.091270 0.986550 0.000000
H H 0.818450 0.059240 0.958650 0.000000
H H 0.858540 0.167721 0.072600 0.000000
H H 0.642000 0.438491 0.941400 0.000000
H H 0.676990 0.263551 0.894470 0.000000
H H 0.865010 0.256940 0.900840 0.000000
H H 0.844610 0.381020 0.026380 0.000000
H H 0.075220 0.736680 0.540130 0.000000
H H 0.992540 0.803390 0.612260 0.000000
H H 0.993970 0.197460 0.614650 0.000000
H H 0.074820 0.263310 0.536790 0.000000
H H 0.924780 0.736680 0.459870 0.000000
H H 0.007460 0.803390 0.387740 0.000000
H H 0.006030 0.197460 0.385350 0.000000
H H 0.925180 0.263310 0.463210 0.000000
H H 0.137360 0.892199 0.945770 0.000000
H H 0.181810 0.799041 0.872530 0.000000
